<?xml version="1.0" encoding="UTF-8"?>

<!-- generated on Вс 30 июн 2019 02:55:51 by Eclipse SUMO netedit Version v1_2_0+0892-31e93e81f4
<configuration xmlns:xsi="http://www.w3.org/2001/XMLSchema-instance" xsi:noNamespaceSchemaLocation="http://sumo.dlr.de/xsd/netconvertConfiguration.xsd">

    <input>
        <sumo-net-file value="/var/www/hackaton/traci-demo/simple_road/simple_road.net.xml"/>
    </input>

    <output>
        <output-file value="/var/www/hackaton/traci-demo/simple_road/simple_road.net.xml"/>
    </output>

    <processing>
        <geometry.max-grade.fix value="false"/>
        <offset.disable-normalization value="true"/>
        <lefthand value="false"/>
    </processing>

    <junctions>
        <no-turnarounds value="true"/>
        <junctions.corner-detail value="5"/>
        <junctions.limit-turn-speed value="5.5"/>
        <rectangular-lane-cut value="false"/>
    </junctions>

    <pedestrian>
        <walkingareas value="false"/>
    </pedestrian>

</configuration>
-->

<net version="1.3" junctionCornerDetail="5" limitTurnSpeed="5.50" xmlns:xsi="http://www.w3.org/2001/XMLSchema-instance" xsi:noNamespaceSchemaLocation="http://sumo.dlr.de/xsd/net_file.xsd">

    <location netOffset="0.00,0.00" convBoundary="51.65,-61.43,366.06,40.00" origBoundary="-10000000000.00,-10000000000.00,10000000000.00,10000000000.00" projParameter="!"/>

    <edge id=":center_0" function="internal">
        <lane id=":center_0_0" index="0" speed="13.89" length="14.40" shape="207.20,41.60 192.80,41.60"/>
    </edge>
    <edge id=":center_1" function="internal">
        <lane id=":center_1_0" index="0" speed="8.00" length="5.93" shape="207.20,41.60 203.35,41.05 201.60,40.00"/>
    </edge>
    <edge id=":center_6" function="internal">
        <lane id=":center_6_0" index="0" speed="8.00" length="8.26" shape="201.60,40.00 200.60,39.40 198.95,36.65 198.40,32.80"/>
    </edge>
    <edge id=":center_2" function="internal">
        <lane id=":center_2_0" index="0" speed="6.51" length="9.03" shape="201.60,32.80 201.95,35.25 203.00,37.00 204.75,38.05 207.20,38.40"/>
    </edge>
    <edge id=":center_3" function="internal">
        <lane id=":center_3_0" index="0" speed="8.00" length="14.19" shape="201.60,32.80 201.05,36.65 199.40,39.40 196.65,41.05 192.80,41.60"/>
    </edge>
    <edge id=":center_4" function="internal">
        <lane id=":center_4_0" index="0" speed="6.51" length="9.03" shape="192.80,38.40 195.25,38.05 197.00,37.00 198.05,35.25 198.40,32.80"/>
    </edge>
    <edge id=":center_5" function="internal">
        <lane id=":center_5_0" index="0" speed="13.89" length="14.40" shape="192.80,38.40 207.20,38.40"/>
    </edge>

    <edge id="b-c" from="bottom" to="center" priority="-1">
        <lane id="b-c_0" index="0" speed="13.89" length="94.23" shape="201.60,-61.43 201.60,32.80"/>
    </edge>
    <edge id="c-b" from="center" to="bottom" priority="-1">
        <lane id="c-b_0" index="0" speed="13.89" length="94.23" shape="198.40,32.80 198.40,-61.43"/>
    </edge>
    <edge id="c-l" from="center" to="left" priority="-1">
        <lane id="c-l_0" index="0" speed="13.89" length="141.15" shape="192.80,41.60 51.65,41.60"/>
    </edge>
    <edge id="c-r" from="center" to="right" priority="-1">
        <lane id="c-r_0" index="0" speed="13.89" length="158.86" shape="207.20,38.40 366.06,38.40"/>
    </edge>
    <edge id="l-c" from="left" to="center" priority="-1">
        <lane id="l-c_0" index="0" speed="13.89" length="141.15" shape="51.65,38.40 192.80,38.40"/>
    </edge>
    <edge id="r-c" from="right" to="center" priority="-1">
        <lane id="r-c_0" index="0" speed="13.89" length="158.86" shape="366.06,41.60 207.20,41.60"/>
    </edge>

    <tlLogic id="center" type="static" programID="0" offset="0">
        <phase duration="42" state="GgrrGG"/>
        <phase duration="3"  state="yyrryy"/>
        <phase duration="42" state="rrGGGr"/>
        <phase duration="3"  state="rryyyr"/>
    </tlLogic>

    <junction id="bottom" type="dead_end" x="200.00" y="-61.43" incLanes="c-b_0" intLanes="" shape="200.00,-61.43 196.80,-61.43 200.00,-61.43"/>
    <junction id="center" type="traffic_light" x="200.00" y="40.00" incLanes="r-c_0 b-c_0 l-c_0" intLanes=":center_0_0 :center_6_0 :center_2_0 :center_3_0 :center_4_0 :center_5_0" shape="207.20,43.20 207.20,36.80 204.98,36.36 204.20,35.80 203.64,35.02 203.31,34.02 203.20,32.80 196.80,32.80 196.36,35.02 195.80,35.80 195.02,36.36 194.02,36.69 192.80,36.80 192.80,43.20">
        <request index="0" response="000000" foes="001000" cont="0"/>
        <request index="1" response="110000" foes="111000" cont="1"/>
        <request index="2" response="100000" foes="100000" cont="0"/>
        <request index="3" response="100011" foes="100011" cont="0"/>
        <request index="4" response="000000" foes="000010" cont="0"/>
        <request index="5" response="000000" foes="001110" cont="0"/>
    </junction>
    <junction id="left" type="dead_end" x="51.65" y="40.00" incLanes="c-l_0" intLanes="" shape="51.65,40.00 51.65,43.20 51.65,40.00"/>
    <junction id="right" type="dead_end" x="366.06" y="40.00" incLanes="c-r_0" intLanes="" shape="366.06,40.00 366.06,36.80 366.06,40.00"/>

    <junction id=":center_6_0" type="internal" x="201.60" y="40.00" incLanes=":center_1_0 l-c_0" intLanes=":center_3_0 :center_4_0 :center_5_0"/>

    <connection from="b-c" to="c-r" fromLane="0" toLane="0" via=":center_2_0" tl="center" linkIndex="2" dir="r" state="o"/>
    <connection from="b-c" to="c-l" fromLane="0" toLane="0" via=":center_3_0" tl="center" linkIndex="3" dir="l" state="o"/>
    <connection from="l-c" to="c-b" fromLane="0" toLane="0" via=":center_4_0" tl="center" linkIndex="4" dir="r" state="O"/>
    <connection from="l-c" to="c-r" fromLane="0" toLane="0" via=":center_5_0" tl="center" linkIndex="5" dir="s" state="O"/>
    <connection from="r-c" to="c-l" fromLane="0" toLane="0" via=":center_0_0" tl="center" linkIndex="0" dir="s" state="O"/>
    <connection from="r-c" to="c-b" fromLane="0" toLane="0" via=":center_1_0" tl="center" linkIndex="1" dir="l" state="o"/>

    <connection from=":center_0" to="c-l" fromLane="0" toLane="0" dir="s" state="M"/>
    <connection from=":center_1" to="c-b" fromLane="0" toLane="0" via=":center_6_0" dir="l" state="m"/>
    <connection from=":center_6" to="c-b" fromLane="0" toLane="0" dir="l" state="M"/>
    <connection from=":center_2" to="c-r" fromLane="0" toLane="0" dir="r" state="M"/>
    <connection from=":center_3" to="c-l" fromLane="0" toLane="0" dir="l" state="M"/>
    <connection from=":center_4" to="c-b" fromLane="0" toLane="0" dir="r" state="M"/>
    <connection from=":center_5" to="c-r" fromLane="0" toLane="0" dir="s" state="M"/>

</net>
