<configuration>
    <input>
        <net-file value="simple_road.net.xml"/>
        <route-files value="simple_road.rou.xml"/>
        <additional-files value="simple_road.add.xml,simple_road.tls.xml"/>
    </input>
</configuration>
