<?xml version="1.0" encoding="UTF-8"?>

<!-- generated on Сб 29 июн 2019 23:05:05 by Eclipse SUMO netedit Version v1_2_0+0892-31e93e81f4
<configuration xmlns:xsi="http://www.w3.org/2001/XMLSchema-instance" xsi:noNamespaceSchemaLocation="http://sumo.dlr.de/xsd/netconvertConfiguration.xsd">

    <input>
        <sumo-net-file value="/var/www/hackaton/traci-demo/moved_vehicle/demo.net.xml"/>
    </input>

    <output>
        <output-file value="/var/www/hackaton/traci-demo/moved_vehicle/simple_road.net.xml"/>
    </output>

    <processing>
        <geometry.max-grade.fix value="false"/>
        <offset.disable-normalization value="true"/>
        <lefthand value="false"/>
    </processing>

    <junctions>
        <no-turnarounds value="true"/>
        <junctions.corner-detail value="0"/>
        <junctions.limit-turn-speed value="-1"/>
        <rectangular-lane-cut value="false"/>
    </junctions>

    <pedestrian>
        <walkingareas value="false"/>
    </pedestrian>

    <netedit>
        <route-files value="/var/www/hackaton/traci-demo/simple_road/simple_road.rou.xml"/>
    </netedit>

</configuration>
-->

<routes>
    <flow id="flow_left" begin="0.00" from="l-c" end="3600.00" number="1800"/>
    <flow id="flow_right" begin="0.00" from="r-c" end="3600.00" number="1800"/>
    <flow id="flow_bottom" begin="0.00" from="b-c" end="3600.00" number="1800"/>
    <!--<route edges="gneE33 gneE35" color="yellow" id="route_0"/>-->
    <!--<route edges="gneE33 gneE34" color="yellow" id="route_1"/>-->
    <!--<route edges="-gneE35 gneE34" color="yellow" id="route_2"/>-->
    <!--<route edges="-gneE34 -gneE33" color="yellow" id="route_3"/>-->
    <!--<route edges="-gneE34 gneE35" color="yellow" id="route_4"/>-->
    <!--<route edges="-gneE35 -gneE33" color="yellow" id="route_5"/>-->
</routes>
