<configuration>
    <input>
        <net-file value="may.net.xml"/>
        <route-files value="may.rou.xml"/>
        <route-files value="may.tls.xml"/>
    </input>
</configuration>
