<?xml version="1.0" encoding="UTF-8"?>

<!-- generated on 06/30/19 11:13:35 by Eclipse SUMO netedit Version 1.2.0
<configuration xmlns:xsi="http://www.w3.org/2001/XMLSchema-instance" xsi:noNamespaceSchemaLocation="http://sumo.dlr.de/xsd/netconvertConfiguration.xsd">

    <input>
        <osm-files value="C:\Users\root\Downloads\map%20(2).osm"/>
    </input>

    <output>
        <output-file value="C:\Users\root\Desktop\repo\simulate\maymodel\may.net.xml"/>
    </output>

    <projection>
        <proj.utm value="true"/>
    </projection>

    <processing>
        <geometry.remove value="true"/>
    </processing>

    <tls_building>
        <tls.discard-simple value="true"/>
        <tls.guess-signals value="true"/>
    </tls_building>

    <ramp_guessing>
        <ramps.guess value="true"/>
    </ramp_guessing>

    <junctions>
        <junctions.join value="true"/>
    </junctions>

    <netedit>
        <route-files value="C:\Users\root\Desktop\repo\simulate\maymodel\may.rou"/>
    </netedit>

</configuration>
35940715#1
-->

<routes xmlns:xsi="http://www.w3.org/2001/XMLSchema-instance" xsi:noNamespaceSchemaLocation="http://sumo.dlr.de/xsd/routes_file.xsd">
    <!-- 1 -->
    <!-- 1 на лево--><flow id="flow_001" type="DEFAULT_VEHTYPE" begin="0.00" end="3600.00" number="2000" from="239949505#0" to="239379535#2"/>
    <!-- 1 на прямо--><flow id="flow_002" type="DEFAULT_VEHTYPE" begin="0.00" end="3600.00" number="2000" from="239949505#0" to="35940715#1"/>
    <!-- 1 на направо--><flow id="flow_003" type="DEFAULT_VEHTYPE" begin="0.00" end="3600.00" number="2000" from="239949505#0" to="239379544#3"/>


    <!-- 2 -->
    <!-- 2 на лево--><flow id="flow_004" type="DEFAULT_VEHTYPE" begin="0.00" end="3600.00" number="2000" from="239949494#1" to="35940715#1"/>
    <!-- 2 на прямо--><flow id="flow_005" type="DEFAULT_VEHTYPE" begin="0.00" end="3600.00" number="2000" from="239949494#1" to="239379544#3"/>
    <!-- 2 на направо--><flow id="flow_006" type="DEFAULT_VEHTYPE" begin="0.00" end="3600.00" number="2000" from="239949494#1" to="356256312#3"/>

    <!-- 3 -->
    <!-- 3 на лево--><flow id="flow_007" type="DEFAULT_VEHTYPE" begin="0.00" end="3600.00" number="2000" from="300960922#0" to="239379544#1"/>
    <!-- 3 на прямо--><flow id="flow_008" type="DEFAULT_VEHTYPE" begin="0.00" end="3600.00" number="2000" from="300960922#0" to="239949502#0"/>
    <!-- 3 на направо--><flow id="flow_009" type="DEFAULT_VEHTYPE" begin="0.00" end="3600.00" number="2000" from="300960922#0" to="239379535#3"/>

    <!-- 4 -->
    <!-- 4 на лево--><flow id="flow_010" type="DEFAULT_VEHTYPE" begin="0.00" end="3600.00" number="2000" from="239379536#2" to="35940715#1"/>
    <!-- 4 на прямо--><flow id="flow_011" type="DEFAULT_VEHTYPE" begin="0.00" end="3600.00" number="2000" from="239379536#2" to="239379535#2"/>
    <!-- 4 на направо--><flow id="flow_012" type="DEFAULT_VEHTYPE" begin="0.00" end="3600.00" number="2000" from="239379536#2" to="239949502#0"/>


</routes>
